@<TRIPOS>MOLECULE
BENZOIC 
21 21 0 0 0
SMALL
USER_CHARGES
#CGenFF output mol2 file
@<TRIPOS>ATOM
1	C1     1.7434     1.4944     0.0000	C.ar	1	UNL1    -0.1750
2	C2     1.7434     0.4981     0.0000	C.ar	1	UNL1    -0.1180
3	C3     0.8966     1.9925     0.0000	C.ar	1	UNL1     0.2460
4	O1     2.5902     1.9925     0.0000	O.3	1	UNL1    -0.1910
5	C4     0.8966     0.0000     0.0000	C.ar	1	UNL1    -0.1130
6	C5     0.0000     1.4944     0.0000	C.ar	1	UNL1    -0.1130
7	C6     0.8966     2.9887     0.0000	C.2	1	UNL1     0.4210
8	C7     0.0000     0.4981     0.0000	C.ar	1	UNL1    -0.1130
9	O2     0.0000     3.4869     0.0000	O.2	1	UNL1    -0.4310
10	O3     1.7434     3.4869     0.0000	O.3	1	UNL1    -0.5270
11	C8     3.4869     1.4944     0.0000	C.2	1	UNL1     0.8540
12	O4     4.3337     1.9925     0.0000	O.2	1	UNL1    -0.6360
13	C9     3.4869     0.4981     0.0000	C.3	1	UNL1    -0.2640
14	H1     2.6392    -0.0143     0.0000	H	1	UNL1     0.1160
15	H2     0.9093    -1.0319     0.0000	H	1	UNL1     0.1160
16	H3    -0.8894     2.0178     0.0000	H	1	UNL1     0.1160
17	H4    -0.8894    -0.0253     0.0000	H	1	UNL1     0.1160
18	H5     2.5587     3.0251     0.0000	H	1	UNL1     0.4260
19	H6     2.5603    -0.0369     0.0000	H	1	UNL1     0.0900
20	H7     4.4135    -0.0369     0.0000	H	1	UNL1     0.0900
21	H8     3.4869    -0.5719     0.0000	H	1	UNL1     0.0900
@<TRIPOS>BOND
1	1	2	2
2	3	1	1
3	1	4	1
4	2	5	1
5	6	3	2
6	3	7	1
7	4	11	1
8	5	8	2
9	8	6	1
10	7	9	2
11	7	10	1
12	11	12	2
13	11	13	1
14	2	14	1
15	5	15	1
16	6	16	1
17	8	17	1
18	10	18	1
19	13	19	1
20	13	20	1
21	13	21	1
