@<TRIPOS>MOLECULE
BENZOIC ACID, 2-(ACETYLOXY)-, ID: C50782
 21 21 0 0 0
SMALL
GASTEIGER
****
Copyright by the U.S. Sec. Commerce on behalf of U.S.A. All rights reserved.
@<TRIPOS>ATOM
      1 C           1.7434    1.4944    0.0000 C.ar    1  UNL1        0.1456
      2 C           1.7434    0.4981    0.0000 C.ar    1  UNL1       -0.0184
      3 C           0.8966    1.9925    0.0000 C.ar    1  UNL1        0.1010
      4 O           2.5902    1.9925    0.0000 O.3     1  UNL1       -0.4252
      5 C           0.8966    0.0000    0.0000 C.ar    1  UNL1       -0.0582
      6 C           0.0000    1.4944    0.0000 C.ar    1  UNL1       -0.0442
      7 C           0.8966    2.9887    0.0000 C.2     1  UNL1        0.3404
      8 C           0.0000    0.4981    0.0000 C.ar    1  UNL1       -0.0608
      9 O           0.0000    3.4869    0.0000 O.2     1  UNL1       -0.2450
     10 O           1.7434    3.4869    0.0000 O.3     1  UNL1       -0.4770
     11 C           3.4869    1.4944    0.0000 C.2     1  UNL1        0.3092
     12 O           4.3337    1.9925    0.0000 O.2     1  UNL1       -0.2507
     13 C           3.4869    0.4981    0.0000 C.3     1  UNL1        0.0336
     14 H           2.6392   -0.0143    0.0000 H       1  UNL1        0.0654
     15 H           0.9093   -1.0319    0.0000 H       1  UNL1        0.0619
     16 H          -0.8894    2.0178    0.0000 H       1  UNL1        0.0627
     17 H          -0.8894   -0.0253    0.0000 H       1  UNL1        0.0618
     18 H           2.5587    3.0251    0.0000 H       1  UNL1        0.2954
     19 H           2.5603   -0.0369    0.0000 H       1  UNL1        0.0342
     20 H           4.4135   -0.0369    0.0000 H       1  UNL1        0.0342
     21 H           3.4869   -0.5719    0.0000 H       1  UNL1        0.0342
@<TRIPOS>BOND
     1     1     2   ar
     2     3     1   ar
     3     1     4    1
     4     2     5   ar
     5     6     3   ar
     6     3     7    1
     7     4    11    1
     8     5     8   ar
     9     8     6   ar
    10     7     9    2
    11     7    10    1
    12    11    12    2
    13    11    13    1
    14     2    14    1
    15     5    15    1
    16     6    16    1
    17     8    17    1
    18    10    18    1
    19    13    19    1
    20    13    20    1
    21    13    21    1
